66868
  -OEChem-03182218453D

 38 42  0     0  0  0  0  0  0999 V2000
    0.4127    1.9875    0.0060 N   0  0  0  0  0  0  0  0  0  0  0  0
   -2.1747    0.3925   -0.2463 N   0  0  0  0  0  0  0  0  0  0  0  0
    1.9998   -0.3778    0.0260 N   0  0  0  0  0  0  0  0  0  0  0  0
   -0.3861   -1.9246    0.0321 N   0  0  0  0  0  0  0  0  0  0  0  0
   -0.5809    2.9233   -0.1226 C   0  0  0  0  0  0  0  0  0  0  0  0
   -2.6683    1.6350    0.0877 C   0  0  0  0  0  0  0  0  0  0  0  0
    1.6706    2.5349   -0.0864 C   0  0  0  0  0  0  0  0  0  0  0  0
   -3.0927   -0.5912    0.0504 C   0  0  0  0  0  0  0  0  0  0  0  0
   -1.9187    2.8279   -0.0962 C   0  0  0  0  0  0  0  0  0  0  0  0
    0.1258    4.1923   -0.2938 C   0  0  0  0  0  0  0  0  0  0  0  0
   -3.9618    1.4388    0.5350 C   0  0  0  0  0  0  0  0  0  0  0  0
    1.4517    3.9625   -0.2673 C   0  0  0  0  0  0  0  0  0  0  0  0
   -4.2271    0.0492    0.5104 C   0  0  0  0  0  0  0  0  0  0  0  0
    2.8744    1.9486   -0.0385 C   0  0  0  0  0  0  0  0  0  0  0  0
   -2.8198   -1.9662   -0.1761 C   0  0  0  0  0  0  0  0  0  0  0  0
    2.9766    0.4787    0.0824 C   0  0  0  0  0  0  0  0  0  0  0  0
   -1.6035   -2.5325   -0.1753 C   0  0  0  0  0  0  0  0  0  0  0  0
    2.5876   -1.6106    0.1562 C   0  0  0  0  0  0  0  0  0  0  0  0
    0.4912   -2.8849   -0.0303 C   0  0  0  0  0  0  0  0  0  0  0  0
    1.9609   -2.7931    0.1349 C   0  0  0  0  0  0  0  0  0  0  0  0
    4.3085   -0.1129    0.2585 C   0  0  0  0  0  0  0  0  0  0  0  0
   -1.3683   -3.9440   -0.3668 C   0  0  0  0  0  0  0  0  0  0  0  0
    4.0091   -1.4132    0.2999 C   0  0  0  0  0  0  0  0  0  0  0  0
   -0.0671   -4.2203   -0.2798 C   0  0  0  0  0  0  0  0  0  0  0  0
   -2.5014    3.7439   -0.1811 H   0  0  0  0  0  0  0  0  0  0  0  0
    0.2603    1.0100    0.1931 H   0  0  0  0  0  0  0  0  0  0  0  0
   -1.2722    0.2196   -0.6654 H   0  0  0  0  0  0  0  0  0  0  0  0
   -0.3473    5.1539   -0.4181 H   0  0  0  0  0  0  0  0  0  0  0  0
   -4.6424    2.2175    0.8524 H   0  0  0  0  0  0  0  0  0  0  0  0
    2.2278    4.7042   -0.3698 H   0  0  0  0  0  0  0  0  0  0  0  0
   -5.1478   -0.4354    0.8062 H   0  0  0  0  0  0  0  0  0  0  0  0
    3.7914    2.5231   -0.1169 H   0  0  0  0  0  0  0  0  0  0  0  0
   -3.6887   -2.6086   -0.3097 H   0  0  0  0  0  0  0  0  0  0  0  0
    2.5171   -3.7211    0.2265 H   0  0  0  0  0  0  0  0  0  0  0  0
    5.2603    0.3790    0.3309 H   0  0  0  0  0  0  0  0  0  0  0  0
   -2.1443   -4.6724   -0.5480 H   0  0  0  0  0  0  0  0  0  0  0  0
    4.7259   -2.2112    0.4195 H   0  0  0  0  0  0  0  0  0  0  0  0
    0.4454   -5.1599   -0.3689 H   0  0  0  0  0  0  0  0  0  0  0  0
  1  5  1  0  0  0  0
  1  7  1  0  0  0  0
  1 26  1  0  0  0  0
  2  6  1  0  0  0  0
  2  8  1  0  0  0  0
  2 27  1  0  0  0  0
  3 16  2  0  0  0  0
  3 18  1  0  0  0  0
  4 17  1  0  0  0  0
  4 19  2  0  0  0  0
  5  9  2  0  0  0  0
  5 10  1  0  0  0  0
  6  9  1  0  0  0  0
  6 11  2  0  0  0  0
  7 12  1  0  0  0  0
  7 14  2  0  0  0  0
  8 13  2  0  0  0  0
  8 15  1  0  0  0  0
  9 25  1  0  0  0  0
 10 12  2  0  0  0  0
 10 28  1  0  0  0  0
 11 13  1  0  0  0  0
 11 29  1  0  0  0  0
 12 30  1  0  0  0  0
 13 31  1  0  0  0  0
 14 16  1  0  0  0  0
 14 32  1  0  0  0  0
 15 17  2  0  0  0  0
 15 33  1  0  0  0  0
 16 21  1  0  0  0  0
 17 22  1  0  0  0  0
 18 20  2  0  0  0  0
 18 23  1  0  0  0  0
 19 20  1  0  0  0  0
 19 24  1  0  0  0  0
 20 34  1  0  0  0  0
 21 23  2  0  0  0  0
 21 35  1  0  0  0  0
 22 24  2  0  0  0  0
 22 36  1  0  0  0  0
 23 37  1  0  0  0  0
 24 38  1  0  0  0  0
M  END